Version 4
SHEET 1 2344 1544
WIRE 1296 -432 1232 -432
WIRE 1296 -416 1296 -432
WIRE 1232 -352 1232 -432
WIRE 848 -256 784 -256
WIRE 976 -256 928 -256
WIRE 784 -224 784 -256
WIRE 1232 -224 1232 -272
WIRE 1232 -224 1088 -224
WIRE 976 -208 976 -256
WIRE 1088 -128 1088 -224
WIRE 1248 -128 1088 -128
WIRE 1248 -112 1248 -128
WIRE 1216 -96 1040 -96
WIRE 1360 -80 1280 -80
WIRE 976 -64 976 -128
WIRE 1216 -64 976 -64
WIRE 1248 -32 1248 -48
WIRE 1248 -32 1120 -32
WIRE 976 16 976 -64
WIRE 1088 32 1088 -128
WIRE 1248 32 1088 32
WIRE 1248 48 1248 32
WIRE 1040 64 1040 -96
WIRE 1216 64 1040 64
WIRE 1360 80 1280 80
WIRE 1216 96 976 96
WIRE 1120 128 1120 -32
WIRE 1248 128 1248 112
WIRE 1248 128 1120 128
WIRE 976 160 976 96
WIRE 1088 176 1088 32
WIRE 1248 176 1088 176
WIRE 1248 192 1248 176
WIRE 1040 208 1040 64
WIRE 1216 208 1040 208
WIRE 1360 224 1280 224
WIRE 1216 240 976 240
WIRE 1120 272 1120 128
WIRE 1248 272 1248 256
WIRE 1248 272 1120 272
WIRE 976 320 976 240
WIRE 1088 336 1088 176
WIRE 1248 336 1088 336
WIRE 1248 352 1248 336
WIRE 1040 368 1040 208
WIRE 1216 368 1040 368
WIRE 1360 384 1280 384
WIRE 1216 400 976 400
WIRE 1120 448 1120 272
WIRE 1248 448 1248 416
WIRE 1248 448 1120 448
WIRE 976 512 976 400
WIRE 1088 528 1088 336
WIRE 1248 528 1088 528
WIRE 1248 544 1248 528
WIRE 1040 560 1040 368
WIRE 1216 560 1040 560
WIRE 1344 576 1280 576
WIRE 1216 592 976 592
WIRE 1120 624 1120 448
WIRE 1248 624 1248 608
WIRE 1248 624 1120 624
WIRE 976 672 976 592
WIRE 1088 688 1088 528
WIRE 1248 688 1088 688
WIRE 1248 704 1248 688
WIRE 1040 720 1040 560
WIRE 1216 720 1040 720
WIRE 1360 736 1280 736
WIRE 1216 752 976 752
WIRE 1120 784 1120 624
WIRE 1248 784 1248 768
WIRE 1248 784 1120 784
WIRE 976 848 976 752
WIRE 1088 864 1088 688
WIRE 1248 864 1088 864
WIRE 1248 880 1248 864
WIRE 1040 896 1040 720
WIRE 1216 896 1040 896
WIRE 1376 912 1280 912
WIRE 1216 928 976 928
WIRE 976 1008 976 928
WIRE 1120 1040 1120 784
WIRE 1152 1040 1120 1040
WIRE 1248 1040 1248 944
WIRE 1248 1040 1152 1040
WIRE 1152 1104 1152 1040
WIRE 976 1184 976 1088
WIRE 1152 1216 1152 1184
WIRE 1040 1264 1040 896
FLAG 1296 -416 0
FLAG 976 1184 0
FLAG 1152 1216 0
FLAG 1376 912 1
IOPIN 1376 912 Out
FLAG 1360 736 2
IOPIN 1360 736 Out
FLAG 1344 576 3
IOPIN 1344 576 Out
FLAG 1360 384 4
IOPIN 1360 384 Out
FLAG 1360 224 5
IOPIN 1360 224 Out
FLAG 1360 80 6
IOPIN 1360 80 Out
FLAG 1360 -80 7
IOPIN 1360 -80 Out
FLAG 784 -224 0
FLAG 1040 1264 Vin
IOPIN 1040 1264 In
SYMBOL res 960 0 R0
SYMATTR InstName R2
SYMATTR Value 1k
SYMBOL res 960 144 R0
SYMATTR InstName R3
SYMATTR Value 1k
SYMBOL res 960 304 R0
SYMATTR InstName R4
SYMATTR Value 1k
SYMBOL Opamps\\OP07 1248 -16 M180
SYMATTR InstName U3
SYMBOL Opamps\\OP07 1248 144 M180
SYMATTR InstName U4
SYMBOL Opamps\\OP07 1248 288 M180
SYMATTR InstName U5
SYMBOL Opamps\\OP07 1248 448 M180
SYMATTR InstName U6
SYMBOL voltage 944 -256 R90
WINDOW 0 -32 56 VBottom 2
WINDOW 3 32 56 VTop 2
WINDOW 123 0 0 Left 0
WINDOW 39 0 0 Left 0
SYMATTR InstName V5
SYMATTR Value 5
SYMBOL voltage 1232 -256 R180
WINDOW 0 24 96 Left 2
WINDOW 3 24 16 Left 2
WINDOW 123 0 0 Left 0
WINDOW 39 0 0 Left 0
SYMATTR InstName V6
SYMATTR Value -12
SYMBOL res 960 496 R0
SYMATTR InstName R5
SYMATTR Value 1k
SYMBOL res 960 656 R0
SYMATTR InstName R6
SYMATTR Value 1k
SYMBOL res 960 832 R0
SYMATTR InstName R7
SYMATTR Value 1k
SYMBOL Opamps\\OP07 1248 640 M180
SYMATTR InstName U7
SYMBOL Opamps\\OP07 1248 800 M180
SYMATTR InstName U8
SYMBOL Opamps\\OP07 1248 976 M180
SYMATTR InstName U9
SYMBOL voltage 1152 1088 R0
WINDOW 123 0 0 Left 0
WINDOW 39 0 0 Left 0
SYMATTR InstName V7
SYMATTR Value 12
SYMBOL res 960 992 R0
SYMATTR InstName R8
SYMATTR Value 1k
SYMBOL res 960 -224 R0
SYMATTR InstName R9
SYMATTR Value 500
