Version 4
SHEET 1 2344 1640
WIRE 1312 80 1248 80
WIRE 1312 128 1312 80
WIRE 848 256 784 256
WIRE 976 256 928 256
WIRE 784 288 784 256
WIRE 1424 304 1376 304
WIRE 976 320 976 256
WIRE 1376 320 1376 304
WIRE 1424 320 1424 304
WIRE 1248 336 1248 80
WIRE 1248 336 1088 336
WIRE 1680 336 1488 336
WIRE 1248 352 1248 336
WIRE 1216 368 1040 368
WIRE 1328 384 1280 384
WIRE 1424 384 1328 384
WIRE 1216 400 976 400
WIRE 1248 448 1248 416
WIRE 1248 448 1120 448
WIRE 976 512 976 400
WIRE 1088 528 1088 336
WIRE 1248 528 1088 528
WIRE 1664 528 1488 528
WIRE 1248 544 1248 528
WIRE 1040 560 1040 368
WIRE 1216 560 1040 560
WIRE 1328 560 1328 384
WIRE 1424 560 1328 560
WIRE 1328 576 1280 576
WIRE 1424 576 1328 576
WIRE 1216 592 976 592
WIRE 1120 624 1120 448
WIRE 1248 624 1248 608
WIRE 1248 624 1120 624
WIRE 976 672 976 592
WIRE 1088 688 1088 528
WIRE 1248 688 1088 688
WIRE 1680 688 1488 688
WIRE 1248 704 1248 688
WIRE 1040 720 1040 560
WIRE 1216 720 1040 720
WIRE 1328 720 1328 576
WIRE 1424 720 1328 720
WIRE 1424 736 1280 736
WIRE 1216 752 976 752
WIRE 1120 784 1120 624
WIRE 1248 784 1248 768
WIRE 1248 784 1120 784
WIRE 1088 832 1088 688
WIRE 976 848 976 752
WIRE 1120 864 1120 784
WIRE 1152 864 1120 864
WIRE 1152 912 1152 864
WIRE 976 944 976 928
WIRE 1040 976 1040 720
WIRE 1040 976 640 976
WIRE 1040 1024 1040 976
WIRE 1152 1024 1152 992
WIRE 640 1216 640 976
FLAG 1312 128 0
FLAG 1152 1024 0
FLAG 1680 688 1
IOPIN 1680 688 Out
FLAG 1664 528 2
IOPIN 1664 528 Out
FLAG 1680 336 3
IOPIN 1680 336 Out
FLAG 784 288 0
FLAG 976 944 0
FLAG 1040 1024 Vin
IOPIN 1040 1024 In
FLAG 640 1296 0
FLAG 1376 320 0
FLAG 1088 832 0
SYMBOL res 960 304 R0
SYMATTR InstName R4
SYMATTR Value 1k
SYMBOL voltage 944 256 R90
WINDOW 0 -32 56 VBottom 2
WINDOW 3 32 56 VTop 2
WINDOW 123 0 0 Left 0
WINDOW 39 0 0 Left 0
SYMATTR InstName V5
SYMATTR Value 5
SYMBOL res 960 496 R0
SYMATTR InstName R5
SYMATTR Value 1k
SYMBOL res 960 656 R0
SYMATTR InstName R6
SYMATTR Value 1k
SYMBOL voltage 1152 896 R0
WINDOW 123 0 0 Left 0
WINDOW 39 0 0 Left 0
SYMATTR InstName V7
SYMATTR Value 5
SYMBOL res 960 832 R0
SYMATTR InstName R2
SYMATTR Value 1k
SYMBOL Digital\\xor 1472 288 R0
SYMATTR InstName A1
SYMBOL Digital\\xor 1472 480 R0
SYMATTR InstName A2
SYMBOL Digital\\xor 1472 640 R0
SYMATTR InstName A3
SYMBOL voltage 640 1200 R0
WINDOW 123 0 0 Left 0
WINDOW 39 0 0 Left 0
SYMATTR InstName V1
SYMATTR Value SINE(2.5 2.5 100)
SYMBOL Comparators\\LT1017 1248 384 M180
SYMATTR InstName U1
SYMBOL Comparators\\LT1017 1248 576 M180
SYMATTR InstName U2
SYMBOL Comparators\\LT1017 1248 736 M180
SYMATTR InstName U3
TEXT 608 1520 Left 2 !.tran 10ms
