Version 4
SHEET 1 1464 680
WIRE -368 -288 -416 -288
WIRE -416 -160 -416 -288
WIRE -368 -160 -416 -160
WIRE 80 -160 -288 -160
WIRE -416 -32 -416 -160
WIRE -368 -32 -416 -32
WIRE 208 -32 -288 -32
WIRE -416 16 -416 -32
WIRE 80 16 80 -160
WIRE 80 112 80 96
WIRE 272 112 80 112
WIRE 800 128 336 128
WIRE 208 144 208 -32
WIRE 272 144 208 144
WIRE 80 192 80 112
WIRE 704 192 416 192
WIRE 1040 208 768 208
WIRE 416 224 416 192
WIRE 704 224 416 224
WIRE 272 272 80 272
WIRE 416 288 416 224
WIRE 416 288 336 288
WIRE 512 288 416 288
WIRE 640 288 576 288
WIRE 208 304 208 144
WIRE 272 304 208 304
WIRE 800 336 800 128
WIRE 848 336 800 336
WIRE 1040 336 912 336
WIRE 80 368 80 272
WIRE 640 368 640 288
WIRE 704 368 640 368
WIRE 848 368 768 368
WIRE 704 400 640 400
WIRE 272 448 80 448
WIRE 640 464 640 400
WIRE 640 464 336 464
WIRE 208 480 208 304
WIRE 272 480 208 480
WIRE 80 512 80 448
WIRE 80 640 80 592
FLAG 80 640 0
FLAG -416 16 0
FLAG 304 160 0
FLAG 304 320 0
FLAG 304 496 0
FLAG -288 -288 csupply
FLAG 304 96 csupply
FLAG 304 256 csupply
FLAG 304 432 csupply
FLAG 1040 208 1
IOPIN 1040 208 Out
FLAG 1040 336 2
IOPIN 1040 336 Out
SYMBOL res 64 0 R0
SYMATTR InstName R1
SYMATTR Value 10k
SYMBOL res 64 176 R0
SYMATTR InstName R2
SYMATTR Value 10k
SYMBOL res 64 352 R0
SYMATTR InstName R3
SYMATTR Value 10k
SYMBOL res 64 496 R0
SYMATTR InstName R4
SYMATTR Value 10k
SYMBOL Comparators\\LT1017 304 128 R0
SYMATTR InstName A
SYMBOL Comparators\\LT1017 304 288 R0
SYMATTR InstName B
SYMBOL Comparators\\LT1017 304 464 R0
SYMATTR InstName C
SYMBOL voltage -272 -288 R90
WINDOW 0 -32 56 VBottom 2
WINDOW 3 32 56 VTop 2
WINDOW 123 0 0 Left 0
WINDOW 39 0 0 Left 0
SYMATTR InstName ComparatorSupply
SYMATTR Value 5V
SYMBOL voltage -272 -160 R90
WINDOW 0 -32 56 VBottom 2
WINDOW 3 32 56 VTop 2
WINDOW 123 0 0 Left 0
WINDOW 39 0 0 Left 0
SYMATTR InstName VReference
SYMATTR Value 5V
SYMBOL voltage -272 -32 R90
WINDOW 0 -32 56 VBottom 2
WINDOW 3 32 56 VTop 2
WINDOW 123 0 0 Left 0
WINDOW 39 0 0 Left 0
SYMATTR InstName Vinput
SYMATTR Value SINE(2.5 2.5 100)
SYMBOL Digital\\inv 512 224 R0
SYMATTR InstName A1
SYMBOL Digital\\and 736 320 R0
SYMATTR InstName A2
SYMBOL Digital\\or 880 288 R0
SYMATTR InstName A3
SYMBOL Digital\\and 736 160 R0
SYMATTR InstName A4
TEXT -440 664 Left 2 !.tran 10m
TEXT 1008 168 Left 2 ;Y1
TEXT 1008 304 Left 2 ;Y0
