Version 4
SHEET 1 1736 680
WIRE 464 -192 32 -192
WIRE 800 -192 464 -192
WIRE 1104 -192 800 -192
WIRE 32 -80 32 -192
WIRE 32 -80 -80 -80
WIRE 384 -64 352 -64
WIRE 736 -64 688 -64
WIRE 1040 -64 1008 -64
WIRE 1360 -64 1328 -64
WIRE 32 -48 32 -80
WIRE 176 -48 32 -48
WIRE 464 -48 464 -192
WIRE 512 -48 464 -48
WIRE 800 -48 800 -192
WIRE 832 -48 800 -48
WIRE 1104 -48 1104 -192
WIRE 1152 -48 1104 -48
WIRE 432 -32 352 -32
WIRE 784 -32 688 -32
WIRE 1088 -32 1008 -32
WIRE 1408 -32 1328 -32
WIRE 176 -16 32 -16
WIRE 512 -16 464 -16
WIRE 832 -16 800 -16
WIRE 1152 -16 1104 -16
WIRE 1616 -16 1584 -16
WIRE 464 0 464 -16
WIRE 464 0 352 0
WIRE 800 0 800 -16
WIRE 800 0 688 0
WIRE 1104 0 1104 -16
WIRE 1104 0 1008 0
WIRE 1488 0 1328 0
WIRE 1664 16 1584 16
WIRE 32 32 32 -16
WIRE 32 32 -192 32
WIRE 1040 240 1040 -64
WIRE 1088 240 1088 -32
WIRE 1360 240 1360 -64
WIRE 1408 240 1408 -32
WIRE 1616 240 1616 -16
WIRE 1664 240 1664 16
WIRE 384 256 384 -64
WIRE 432 256 432 -32
WIRE 736 256 736 -64
WIRE 784 256 784 -32
FLAG -160 -80 0
FLAG -272 32 0
FLAG 384 256 10
IOPIN 384 256 Out
FLAG 432 256 9
IOPIN 432 256 Out
FLAG 736 256 8
IOPIN 736 256 Out
FLAG 784 256 7
IOPIN 784 256 Out
FLAG 1040 240 6
IOPIN 1040 240 Out
FLAG 1088 240 5
IOPIN 1088 240 Out
FLAG 1360 240 4
IOPIN 1360 240 Out
FLAG 1408 240 3
IOPIN 1408 240 Out
FLAG 1664 240 1
IOPIN 1664 240 Out
FLAG 1616 240 2
IOPIN 1616 240 Out
SYMBOL voltage -176 32 R90
WINDOW 0 137 152 VRight 2
WINDOW 3 71 -5 VRight 2
WINDOW 123 104 127 VRight 2
WINDOW 39 0 0 Left 0
SYMATTR InstName V1
SYMATTR Value SINE(2.5 2.5 1)
SYMATTR Value2 AC 1
SYMBOL voltage -64 -80 R90
WINDOW 0 -59 256 VRight 2
WINDOW 3 -120 -57 VRight 2
WINDOW 123 -91 233 VRight 2
WINDOW 39 0 0 Left 0
SYMATTR InstName V2
SYMATTR Value PULSE(0 5 0 0 0 0.005 0.025)
SYMATTR Value2 AC 1
SYMBOL stage 256 -32 R0
SYMATTR InstName X1
SYMBOL stage 592 -32 R0
SYMATTR InstName X2
SYMBOL stage 912 -32 R0
SYMATTR InstName X3
SYMBOL stage 1232 -32 R0
SYMATTR InstName X4
SYMBOL flash2bits 1536 0 R0
SYMATTR InstName X5
