Version 4
SHEET 1 1452 1236
WIRE 64 0 -32 0
WIRE -32 16 -32 0
WIRE -32 128 -32 96
WIRE 64 128 64 0
WIRE 208 128 64 128
WIRE 592 128 544 128
WIRE 448 144 384 144
WIRE 800 144 704 144
WIRE 208 160 -32 160
WIRE 592 160 544 160
WIRE -32 192 -32 160
WIRE -32 288 -32 272
FLAG -32 128 0
FLAG -32 288 0
FLAG 800 144 Vout
IOPIN 800 144 Out
SYMBOL voltage -32 176 R0
WINDOW 123 -89 80 Left 2
WINDOW 39 0 0 Left 0
WINDOW 0 -64 53 Left 2
WINDOW 3 -223 52 Left 2
SYMATTR Value2 AC 1
SYMATTR InstName V1
SYMATTR Value SINE(5 5 100)
SYMBOL voltage -32 0 R0
WINDOW 123 -219 58 Right 2
WINDOW 39 0 0 Left 0
WINDOW 0 -44 58 Right 2
WINDOW 3 -42 28 Right 2
SYMATTR Value2 AC 1
SYMATTR InstName V4
SYMATTR Value PULSE(0 10 0 0 0 0.07m 0.25m)
SYMBOL SH 288 144 R0
SYMATTR InstName X1
SYMBOL flash2bits 496 144 R0
SYMATTR InstName X2
SYMBOL DacR2r 640 144 R0
SYMATTR InstName X3
TEXT -408 80 Left 2 !.tran 10ms
