Version 4
SHEET 1 1744 900
WIRE 464 -192 32 -192
WIRE 800 -192 464 -192
WIRE 32 -80 32 -192
WIRE 32 -80 -80 -80
WIRE 384 -64 352 -64
WIRE 736 -64 688 -64
WIRE 1040 -64 1008 -64
WIRE 1360 -64 1328 -64
WIRE 32 -48 32 -80
WIRE 176 -48 32 -48
WIRE 464 -48 464 -192
WIRE 512 -48 464 -48
WIRE 800 -48 800 -192
WIRE 832 -48 800 -48
WIRE 1232 -48 1152 -48
WIRE 432 -32 352 -32
WIRE 784 -32 688 -32
WIRE 1088 -32 1008 -32
WIRE 1408 -32 1328 -32
WIRE 176 -16 32 -16
WIRE 512 -16 464 -16
WIRE 832 -16 800 -16
WIRE 464 0 464 -16
WIRE 464 0 352 0
WIRE 800 0 800 -16
WIRE 800 0 688 0
WIRE 1152 0 1152 -48
WIRE 1152 0 1008 0
WIRE 32 32 32 -16
WIRE 32 32 -192 32
WIRE 1408 144 1408 -32
WIRE 1408 144 1296 144
WIRE 736 160 736 -64
WIRE 736 160 704 160
WIRE 1088 160 1088 -32
WIRE 1088 160 992 160
WIRE 432 176 432 -32
WIRE 512 176 432 176
WIRE 1040 192 1040 -64
WIRE 1040 192 1008 192
WIRE 1360 192 1360 -64
WIRE 1360 192 1312 192
WIRE 384 208 384 -64
WIRE 496 208 384 208
WIRE 784 208 784 -32
WIRE 784 208 688 208
WIRE 1040 240 1040 192
WIRE 1088 240 1088 160
WIRE 1360 240 1360 192
WIRE 1408 240 1408 144
WIRE 384 256 384 208
WIRE 432 256 432 176
WIRE 736 256 736 160
WIRE 784 256 784 208
WIRE 992 320 992 160
WIRE 992 320 656 320
WIRE 1008 352 1008 192
WIRE 1008 352 672 352
WIRE 1312 368 1312 192
WIRE 1312 368 720 368
WIRE 1296 416 1296 144
WIRE 1296 416 752 416
WIRE 496 544 496 208
WIRE 800 544 496 544
WIRE 512 576 512 176
WIRE 800 576 512 576
WIRE 704 608 704 160
WIRE 800 608 704 608
WIRE 688 640 688 208
WIRE 800 640 688 640
WIRE 992 656 912 656
WIRE 1024 656 992 656
WIRE 672 672 672 352
WIRE 800 672 672 672
WIRE 656 704 656 320
WIRE 800 704 656 704
WIRE 992 704 992 656
WIRE 1136 704 992 704
WIRE 1360 704 1216 704
WIRE 1360 720 1360 704
WIRE 1616 720 1360 720
WIRE 720 736 720 368
WIRE 800 736 720 736
WIRE 1360 736 1360 720
WIRE 752 768 752 416
WIRE 800 768 752 768
WIRE 1360 848 1360 800
WIRE 1360 848 1264 848
WIRE 1264 880 1264 848
FLAG -160 -80 0
FLAG -272 32 0
FLAG 384 256 8
IOPIN 384 256 Out
FLAG 432 256 7
IOPIN 432 256 Out
FLAG 736 256 6
IOPIN 736 256 Out
FLAG 784 256 5
IOPIN 784 256 Out
FLAG 1040 240 4
IOPIN 1040 240 Out
FLAG 1088 240 3
IOPIN 1088 240 Out
FLAG 1360 240 2
IOPIN 1360 240 Out
FLAG 1408 240 1
IOPIN 1408 240 Out
FLAG 1024 656 Vout
IOPIN 1024 656 Out
FLAG 1264 880 0
FLAG 1616 720 Vout2
IOPIN 1616 720 Out
SYMBOL voltage -176 32 R90
WINDOW 0 137 152 VRight 2
WINDOW 3 71 -5 VRight 2
WINDOW 123 104 127 VRight 2
WINDOW 39 0 0 Left 0
SYMATTR InstName V1
SYMATTR Value SINE(2.5 2.5 1)
SYMATTR Value2 AC 1
SYMBOL voltage -64 -80 R90
WINDOW 0 -59 256 VRight 2
WINDOW 3 -120 -57 VRight 2
WINDOW 123 -91 233 VRight 2
WINDOW 39 0 0 Left 0
SYMATTR InstName V2
SYMATTR Value PULSE(0 5 0 0 0 0.00015 0.00195)
SYMATTR Value2 AC 1
SYMBOL stage 256 -32 R0
SYMATTR InstName X1
SYMBOL stage 592 -32 R0
SYMATTR InstName X2
SYMBOL stage 912 -32 R0
SYMATTR InstName X3
SYMBOL flash2bits 1280 -48 R0
SYMATTR InstName X5
SYMBOL DAC10b 848 656 R0
SYMATTR InstName X4
SYMBOL cap 1376 800 R180
WINDOW 0 24 56 Left 2
WINDOW 3 24 8 Left 2
SYMATTR InstName C1
SYMATTR Value 10µ
SYMBOL res 1232 688 R90
WINDOW 0 0 56 VBottom 2
WINDOW 3 32 56 VTop 2
SYMATTR InstName R1
SYMATTR Value 500
TEXT -360 352 Left 2 !.tran 0 1s 0 0.00195
