Version 4
SHEET 1 880 680
WIRE 48 176 48 160
WIRE 96 176 48 176
WIRE 336 176 336 160
WIRE 336 176 176 176
WIRE 384 176 336 176
WIRE 528 176 464 176
WIRE 656 192 592 192
WIRE 704 192 656 192
WIRE 528 208 496 208
WIRE 496 256 496 208
WIRE 656 256 656 192
WIRE 656 256 496 256
WIRE 560 320 560 224
WIRE 656 320 560 320
WIRE 560 352 560 320
WIRE 560 480 560 432
WIRE 688 480 560 480
WIRE 720 480 720 320
WIRE 720 480 688 480
WIRE 688 496 688 480
FLAG 48 80 A
IOPIN 48 80 In
FLAG 336 80 B
IOPIN 336 80 In
FLAG 704 192 Vout
IOPIN 704 192 Out
FLAG 560 160 0
FLAG 688 496 0
SYMBOL res 32 64 R0
SYMATTR InstName R1
SYMATTR Value 10k
SYMBOL res 320 64 R0
SYMATTR InstName R2
SYMATTR Value 10k
SYMBOL res 192 160 R90
WINDOW 0 0 56 VBottom 2
WINDOW 3 32 56 VTop 2
SYMATTR InstName R3
SYMATTR Value 5k
SYMBOL res 480 160 R90
WINDOW 0 0 56 VBottom 2
WINDOW 3 32 56 VTop 2
SYMATTR InstName R4
SYMATTR Value 5k
SYMBOL Opamps\\opamp2 560 256 M180
SYMATTR InstName U1
SYMBOL voltage 560 336 R0
SYMATTR InstName V1
SYMBOL cap 720 304 R90
WINDOW 0 0 32 VBottom 2
WINDOW 3 32 32 VTop 2
SYMATTR InstName C1
SYMATTR Value 100n
