Version 4
SHEET 1 880 680
WIRE 256 128 176 128
WIRE 368 144 320 144
WIRE 80 160 48 160
WIRE 256 160 176 160
WIRE 368 176 320 176
WIRE 256 192 176 192
FLAG 368 144 A
IOPIN 368 144 Out
FLAG 368 176 B
IOPIN 368 176 Out
FLAG 48 160 Vin
IOPIN 48 160 In
SYMBOL 4bitsComparator 128 160 R0
WINDOW 0 0 -72 Bottom 2
SYMATTR InstName X1
SYMBOL 3dec2bits 288 160 R0
SYMATTR InstName X2
