Version 4
SHEET 1 880 680
WIRE 336 64 176 64
WIRE 336 96 176 96
WIRE 336 128 176 128
WIRE 448 128 400 128
WIRE 80 160 48 160
WIRE 336 160 176 160
WIRE 448 160 400 160
WIRE 336 192 176 192
WIRE 448 192 400 192
WIRE 336 224 176 224
WIRE 336 256 176 256
FLAG 448 128 A
IOPIN 448 128 Out
FLAG 448 160 B
IOPIN 448 160 Out
FLAG 448 192 C
IOPIN 448 192 Out
FLAG 48 160 Vin
IOPIN 48 160 In
SYMBOL 3bitsComparator 128 160 R0
SYMATTR InstName X1
SYMBOL 7dec3bits 368 160 R0
SYMATTR InstName X2
