Version 4
SHEET 1 1452 1236
WIRE 464 -96 176 -96
WIRE 176 -64 176 -96
WIRE 176 -64 112 -64
WIRE 240 -64 176 -64
WIRE 240 48 240 16
WIRE 464 80 464 -96
WIRE 480 80 464 80
WIRE 112 112 112 -64
WIRE 480 112 480 80
WIRE 80 128 -32 128
WIRE 368 128 304 128
WIRE 448 128 368 128
WIRE 192 144 144 144
WIRE 208 144 192 144
WIRE 560 144 512 144
WIRE 592 144 560 144
WIRE 80 160 -16 160
WIRE 448 160 416 160
WIRE 208 176 208 144
WIRE 304 176 304 128
WIRE 368 176 368 128
WIRE 416 224 416 160
WIRE 560 224 560 144
WIRE 560 224 416 224
WIRE 288 240 288 224
WIRE 288 240 256 240
WIRE -16 272 -16 160
WIRE 192 272 192 144
WIRE 192 272 -16 272
WIRE 368 304 368 240
WIRE 256 352 256 240
WIRE 256 352 -112 352
WIRE 112 384 112 176
WIRE 480 384 480 176
WIRE 480 384 112 384
WIRE 112 400 112 384
WIRE 176 400 112 400
WIRE 176 512 176 480
FLAG 368 304 0
FLAG 592 144 Vout
IOPIN 592 144 Out
FLAG 176 512 0
FLAG 240 48 0
FLAG -32 128 Vin
IOPIN -32 128 In
FLAG -112 352 Clock
IOPIN -112 352 In
SYMBOL cap 352 176 R0
SYMATTR InstName C1
SYMATTR Value 10p
SYMBOL Opamps\\OP07 112 208 M180
SYMATTR InstName U1
SYMBOL Opamps\\OP07 480 208 M180
SYMATTR InstName U2
SYMBOL voltage 240 -80 R0
WINDOW 123 0 0 Left 0
WINDOW 39 0 0 Left 0
SYMATTR InstName V2
SYMATTR Value -12
SYMBOL voltage 176 384 R0
WINDOW 123 0 0 Left 0
WINDOW 39 0 0 Left 0
SYMATTR InstName V3
SYMATTR Value 12
SYMBOL nmos 208 224 R270
SYMATTR InstName M1
