Version 4
SHEET 1 1452 1236
WIRE -240 -80 -240 -112
WIRE 160 0 -16 0
WIRE 592 0 416 0
WIRE 416 16 416 0
WIRE 416 16 336 16
WIRE 768 16 720 16
WIRE -240 32 -240 0
WIRE 160 32 80 32
WIRE 592 32 496 32
WIRE 272 144 256 144
WIRE 352 144 272 144
WIRE 80 160 80 32
WIRE 80 160 -32 160
WIRE 160 160 80 160
WIRE 496 160 496 32
WIRE 496 160 464 160
WIRE 320 176 256 176
WIRE 352 176 320 176
WIRE -192 336 -192 288
WIRE 272 368 272 144
WIRE 320 368 320 176
WIRE -192 432 -192 416
FLAG -240 32 0
FLAG -192 432 0
FLAG 768 16 Vout
IOPIN 768 16 Out
FLAG 272 368 A
IOPIN 272 368 Out
FLAG 320 368 B
IOPIN 320 368 Out
FLAG -16 0 Clock
IOPIN -16 0 In
FLAG -32 160 Vin
IOPIN -32 160 In
SYMBOL voltage -192 320 R0
WINDOW 123 -89 80 Left 2
WINDOW 39 0 0 Left 0
WINDOW 0 -64 53 Left 2
WINDOW 3 -223 52 Left 2
SYMATTR Value2 AC 1
SYMATTR InstName V1
SYMATTR Value SINE(2.5 2.5 1)
SYMBOL voltage -240 -96 R0
WINDOW 123 -219 58 Right 2
WINDOW 39 0 0 Left 0
WINDOW 0 -44 58 Right 2
WINDOW 3 -42 28 Right 2
SYMATTR Value2 AC 1
SYMATTR InstName V4
SYMATTR Value PULSE(0 5 0 0 0 0.00015 0.00195)
SYMBOL SH 240 16 R0
SYMATTR InstName X1
SYMBOL flash2bits 208 160 R0
SYMATTR InstName X3
SYMBOL DAC 400 160 R0
SYMATTR InstName X4
SYMBOL subtractor 656 16 R0
SYMATTR InstName X2
TEXT -472 32 Left 2 !.tran 1.5s
