Version 4
SHEET 1 1760 1236
WIRE 1024 -128 960 -128
WIRE 1120 -128 1104 -128
WIRE 1440 -128 1376 -128
WIRE 1536 -128 1520 -128
WIRE 32 -112 -240 -112
WIRE -240 -80 -240 -112
WIRE 992 -64 992 -240
WIRE 1024 -64 992 -64
WIRE 1408 -64 1408 -240
WIRE 1440 -64 1408 -64
WIRE 1024 -48 1024 -64
WIRE 1040 -48 1024 -48
WIRE 1440 -48 1440 -64
WIRE 1456 -48 1440 -48
WIRE 1040 -32 1040 -48
WIRE 1456 -32 1456 -48
WIRE 960 -16 960 -128
WIRE 960 -16 944 -16
WIRE 1008 -16 960 -16
WIRE 1376 -16 1376 -128
WIRE 1376 -16 1360 -16
WIRE 1424 -16 1376 -16
WIRE 160 0 -16 0
WIRE 592 0 416 0
WIRE 1120 0 1120 -128
WIRE 1120 0 1072 0
WIRE 1200 0 1120 0
WIRE 1536 0 1536 -128
WIRE 1536 0 1488 0
WIRE 1616 0 1536 0
WIRE 416 16 416 0
WIRE 416 16 336 16
WIRE 816 16 720 16
WIRE 944 16 944 -16
WIRE 944 16 896 16
WIRE 1008 16 976 16
WIRE 1200 16 1200 0
WIRE 1232 16 1200 16
WIRE 1360 16 1360 -16
WIRE 1360 16 1312 16
WIRE 1424 16 1392 16
WIRE 1616 16 1616 0
WIRE 1648 16 1616 16
WIRE -240 32 -240 0
WIRE 160 32 80 32
WIRE 592 32 496 32
WIRE 976 80 976 16
WIRE 1392 80 1392 16
WIRE 1040 112 1040 32
WIRE 1456 112 1456 32
WIRE 272 144 256 144
WIRE 352 144 272 144
WIRE 80 160 80 32
WIRE 80 160 -32 160
WIRE 160 160 80 160
WIRE 496 160 496 32
WIRE 496 160 464 160
WIRE 320 176 256 176
WIRE 352 176 320 176
WIRE 32 288 -192 288
WIRE -192 336 -192 288
WIRE 272 368 272 144
WIRE 320 368 320 176
WIRE -192 432 -192 416
FLAG -240 32 0
FLAG -192 432 0
FLAG 272 368 A
IOPIN 272 368 Out
FLAG 320 368 B
IOPIN 320 368 Out
FLAG -16 0 Clock
IOPIN -16 0 In
FLAG -32 160 Vin
IOPIN -32 160 In
FLAG 992 -320 0
FLAG 1040 192 0
FLAG 976 80 0
FLAG 1408 -320 0
FLAG 1456 192 0
FLAG 1392 80 0
FLAG 1648 16 Vout
IOPIN 1648 16 Out
SYMBOL voltage -192 320 R0
WINDOW 123 -89 80 Left 2
WINDOW 39 0 0 Left 0
WINDOW 0 -64 53 Left 2
WINDOW 3 -223 52 Left 2
SYMATTR Value2 AC 1
SYMATTR InstName V1
SYMATTR Value SINE(2.5 2.5 1)
SYMBOL voltage -240 -96 R0
WINDOW 123 -219 58 Right 2
WINDOW 39 0 0 Left 0
WINDOW 0 -44 58 Right 2
WINDOW 3 -42 28 Right 2
SYMATTR Value2 AC 1
SYMATTR InstName V4
SYMATTR Value PULSE(0 5 0 0 0 0.00015 0.00195)
SYMBOL SH 240 16 R0
SYMATTR InstName X1
SYMBOL flash2bits 208 160 R0
SYMATTR InstName X3
SYMBOL DAC 400 160 R0
SYMATTR InstName X4
SYMBOL subtractor 656 16 R0
SYMATTR InstName X2
SYMBOL Opamps\\UniversalOpamp2 1040 0 R0
SYMATTR InstName U1
SYMBOL res 912 0 R90
WINDOW 0 0 56 VBottom 2
WINDOW 3 32 56 VTop 2
SYMATTR InstName R1
SYMATTR Value 1k
SYMBOL res 1120 -144 R90
WINDOW 0 0 56 VBottom 2
WINDOW 3 32 56 VTop 2
SYMATTR InstName R2
SYMATTR Value 2.5k
SYMBOL voltage 992 -224 R180
WINDOW 0 24 96 Left 2
WINDOW 3 24 16 Left 2
WINDOW 123 0 0 Left 0
WINDOW 39 0 0 Left 0
SYMATTR InstName V2
SYMATTR Value 12
SYMBOL voltage 1040 96 R0
WINDOW 123 0 0 Left 0
WINDOW 39 0 0 Left 0
SYMATTR InstName V3
SYMATTR Value -12
SYMBOL Opamps\\UniversalOpamp2 1456 0 R0
SYMATTR InstName U2
SYMBOL res 1328 0 R90
WINDOW 0 0 56 VBottom 2
WINDOW 3 32 56 VTop 2
SYMATTR InstName R3
SYMATTR Value 1k
SYMBOL res 1536 -144 R90
WINDOW 0 0 56 VBottom 2
WINDOW 3 32 56 VTop 2
SYMATTR InstName R4
SYMATTR Value 1k
SYMBOL voltage 1408 -224 R180
WINDOW 0 24 96 Left 2
WINDOW 3 24 16 Left 2
WINDOW 123 0 0 Left 0
WINDOW 39 0 0 Left 0
SYMATTR InstName V5
SYMATTR Value 12
SYMBOL voltage 1456 96 R0
WINDOW 123 0 0 Left 0
WINDOW 39 0 0 Left 0
SYMATTR InstName V6
SYMATTR Value -12
TEXT -472 32 Left 2 !.tran 1.5s
