Version 4
SHEET 1 880 680
WIRE 144 -128 112 -128
WIRE 176 32 80 32
WIRE 336 32 256 32
WIRE -128 64 -208 64
WIRE 0 64 -48 64
WIRE 144 80 144 -128
WIRE 176 80 144 80
WIRE 176 112 176 80
WIRE 0 128 0 64
WIRE 80 128 80 32
WIRE 80 128 0 128
WIRE 144 128 80 128
WIRE 336 144 336 32
WIRE 336 144 208 144
WIRE 448 144 336 144
WIRE -128 160 -208 160
WIRE 48 160 -48 160
WIRE 144 160 48 160
WIRE 48 208 48 160
WIRE 48 320 48 288
WIRE 176 320 176 176
WIRE 176 320 48 320
WIRE 48 368 48 320
FLAG 448 144 Vout
IOPIN 448 144 Out
FLAG -208 64 V-
IOPIN -208 64 In
FLAG -208 160 V+
IOPIN -208 160 In
FLAG 48 368 0
FLAG 32 -128 0
SYMBOL Opamps\\AD549 176 80 R0
SYMATTR InstName U1
SYMBOL res 32 192 R0
SYMATTR InstName R4
SYMATTR Value 2k
SYMBOL res -32 144 R90
WINDOW 0 0 56 VBottom 2
WINDOW 3 32 56 VTop 2
SYMATTR InstName R3
SYMATTR Value 500
SYMBOL res -32 48 R90
WINDOW 0 0 56 VBottom 2
WINDOW 3 32 56 VTop 2
SYMATTR InstName R1
SYMATTR Value 500
SYMBOL res 272 16 R90
WINDOW 0 0 56 VBottom 2
WINDOW 3 32 56 VTop 2
SYMATTR InstName R2
SYMATTR Value 2k
SYMBOL voltage 128 -128 R90
WINDOW 0 -32 56 VBottom 2
WINDOW 3 32 56 VTop 2
WINDOW 123 0 0 Left 0
WINDOW 39 0 0 Left 0
SYMATTR InstName V1
SYMATTR Value 12
TEXT -296 432 Left 2 ;Vout = (R2/R1) * (V+ - V-)   |  R1 = R3 e R2 = R4
